*Heading
Commercial reference: deformable sphere impact on deformable cantilever
*Preprint, echo=NO, model=NO, history=NO, contact=NO
*Material, name=BEAM_MAT
*Density
1.200000000000e+03
*Elastic
2.500000000000e+08, 3.000000000000e-01
*Material, name=SPHERE_MAT
*Density
3.500000000000e+03
*Elastic
5.000000000000e+06, 3.000000000000e-01
*Surface Interaction, name=FRICTIONLESS_CONTACT
*Surface Behavior, pressure-overclosure=LINEAR
5.000000000000e+09
*Friction
0.
*Part, name=BEAM
*Node
1, 0.000000000000e+00, -4.000000000000e-02, -2.000000000000e-02
2, 1.000000000000e-02, -4.000000000000e-02, -2.000000000000e-02
3, 2.000000000000e-02, -4.000000000000e-02, -2.000000000000e-02
4, 3.000000000000e-02, -4.000000000000e-02, -2.000000000000e-02
5, 4.000000000000e-02, -4.000000000000e-02, -2.000000000000e-02
6, 5.000000000000e-02, -4.000000000000e-02, -2.000000000000e-02
7, 6.000000000000e-02, -4.000000000000e-02, -2.000000000000e-02
8, 7.000000000000e-02, -4.000000000000e-02, -2.000000000000e-02
9, 8.000000000000e-02, -4.000000000000e-02, -2.000000000000e-02
10, 9.000000000000e-02, -4.000000000000e-02, -2.000000000000e-02
11, 1.000000000000e-01, -4.000000000000e-02, -2.000000000000e-02
12, 1.100000000000e-01, -4.000000000000e-02, -2.000000000000e-02
13, 1.200000000000e-01, -4.000000000000e-02, -2.000000000000e-02
14, 1.300000000000e-01, -4.000000000000e-02, -2.000000000000e-02
15, 1.400000000000e-01, -4.000000000000e-02, -2.000000000000e-02
16, 1.500000000000e-01, -4.000000000000e-02, -2.000000000000e-02
17, 1.600000000000e-01, -4.000000000000e-02, -2.000000000000e-02
18, 1.700000000000e-01, -4.000000000000e-02, -2.000000000000e-02
19, 1.800000000000e-01, -4.000000000000e-02, -2.000000000000e-02
20, 1.900000000000e-01, -4.000000000000e-02, -2.000000000000e-02
** ... 2725 like lines cut
*Element, type=C3D8R, elset=BEAM_EALL
1, 1, 2, 63, 62, 550, 551, 612, 611
2, 2, 3, 64, 63, 551, 552, 613, 612
3, 3, 4, 65, 64, 552, 553, 614, 613
4, 4, 5, 66, 65, 553, 554, 615, 614
5, 5, 6, 67, 66, 554, 555, 616, 615
6, 6, 7, 68, 67, 555, 556, 617, 616
7, 7, 8, 69, 68, 556, 557, 618, 617
8, 8, 9, 70, 69, 557, 558, 619, 618
9, 9, 10, 71, 70, 558, 559, 620, 619
10, 10, 11, 72, 71, 559, 560, 621, 620
11, 11, 12, 73, 72, 560, 561, 622, 621
12, 12, 13, 74, 73, 561, 562, 623, 622
13, 13, 14, 75, 74, 562, 563, 624, 623
14, 14, 15, 76, 75, 563, 564, 625, 624
15, 15, 16, 77, 76, 564, 565, 626, 625
16, 16, 17, 78, 77, 565, 566, 627, 626
17, 17, 18, 79, 78, 566, 567, 628, 627
18, 18, 19, 80, 79, 567, 568, 629, 628
19, 19, 20, 81, 80, 568, 569, 630, 629
20, 20, 21, 82, 81, 569, 570, 631, 630
** ... 1900 like lines cut
*Elset, elset=BEAM_EALL, generate
1, 1920, 1
*Solid Section, elset=BEAM_EALL, material=BEAM_MAT
,
*End Part
*Part, name=SPHERE
*Node
1, 4.000000000000e-01, 0.000000000000e+00, 6.900000000000e-02
2, 4.000000000000e-01, 0.000000000000e+00, 1.140000000000e-01
3, 4.058736786499e-01, 0.000000000000e+00, 1.136150187618e-01
4, 4.058234285148e-01, 7.666689084960e-04, 1.136150187618e-01
5, 4.056735379033e-01, 1.520219899407e-03, 1.136150187618e-01
6, 4.054265714852e-01, 2.247759506354e-03, 1.136150187618e-01
7, 4.050867549245e-01, 2.936839324951e-03, 1.136150187618e-01
8, 4.046599025767e-01, 3.575669008453e-03, 1.136150187618e-01
9, 4.041533180039e-01, 4.153318003857e-03, 1.136150187618e-01
10, 4.035756690085e-01, 4.659902576697e-03, 1.136150187618e-01
11, 4.029368393250e-01, 5.086754924482e-03, 1.136150187618e-01
12, 4.022477595064e-01, 5.426571485193e-03, 1.136150187618e-01
13, 4.015202198994e-01, 5.673537903263e-03, 1.136150187618e-01
14, 4.007666689085e-01, 5.823428514807e-03, 1.136150187618e-01
15, 4.000000000000e-01, 5.873678649902e-03, 1.136150187618e-01
16, 3.992333310915e-01, 5.823428514807e-03, 1.136150187618e-01
17, 3.984797801006e-01, 5.673537903263e-03, 1.136150187618e-01
18, 3.977522404936e-01, 5.426571485193e-03, 1.136150187618e-01
19, 3.970631606750e-01, 5.086754924482e-03, 1.136150187618e-01
20, 3.964243309915e-01, 4.659902576697e-03, 1.136150187618e-01
** ... 1087 like lines cut
*Element, type=C3D4, elset=SPHERE_EALL
1, 1, 2, 3, 4
2, 1, 2, 4, 5
3, 1, 2, 5, 6
4, 1, 2, 6, 7
5, 1, 2, 7, 8
6, 1, 2, 8, 9
7, 1, 2, 9, 10
8, 1, 2, 10, 11
9, 1, 2, 11, 12
10, 1, 2, 12, 13
11, 1, 2, 13, 14
12, 1, 2, 14, 15
13, 1, 2, 15, 16
14, 1, 2, 16, 17
15, 1, 2, 17, 18
16, 1, 2, 18, 19
17, 1, 2, 19, 20
18, 1, 2, 20, 21
19, 1, 2, 21, 22
20, 1, 2, 22, 23
** ... 2188 like lines cut
*Elset, elset=SPHERE_EALL, generate
1, 2208, 1
*Solid Section, elset=SPHERE_EALL, material=SPHERE_MAT
,
*End Part
*Assembly, name=ASSEMBLY
*Instance, name=BEAM-1, part=BEAM
*End Instance
*Instance, name=SPHERE-1, part=SPHERE
*End Instance
*Nset, nset=BEAM_FIXED, instance=BEAM-1
1, 62, 123, 184, 245, 306, 367, 428, 489, 550, 611, 672, 733, 794, 855, 916
977, 1038, 1099, 1160, 1221, 1282, 1343, 1404, 1465, 1526, 1587, 1648, 1709, 1770, 1831, 1892
1953, 2014, 2075, 2136, 2197, 2258, 2319, 2380, 2441, 2502, 2563, 2624, 2685
*Nset, nset=SPHERE_NODES, instance=SPHERE-1
1, 2, 3, 4, 5, 6, 7, 8, 9, 10, 11, 12, 13, 14, 15, 16
17, 18, 19, 20, 21, 22, 23, 24, 25, 26, 27, 28, 29, 30, 31, 32
33, 34, 35, 36, 37, 38, 39, 40, 41, 42, 43, 44, 45, 46, 47, 48
49, 50, 51, 52, 53, 54, 55, 56, 57, 58, 59, 60, 61, 62, 63, 64
65, 66, 67, 68, 69, 70, 71, 72, 73, 74, 75, 76, 77, 78, 79, 80
81, 82, 83, 84, 85, 86, 87, 88, 89, 90, 91, 92, 93, 94, 95, 96
97, 98, 99, 100, 101, 102, 103, 104, 105, 106, 107, 108, 109, 110, 111, 112
113, 114, 115, 116, 117, 118, 119, 120, 121, 122, 123, 124, 125, 126, 127, 128
129, 130, 131, 132, 133, 134, 135, 136, 137, 138, 139, 140, 141, 142, 143, 144
145, 146, 147, 148, 149, 150, 151, 152, 153, 154, 155, 156, 157, 158, 159, 160
161, 162, 163, 164, 165, 166, 167, 168, 169, 170, 171, 172, 173, 174, 175, 176
177, 178, 179, 180, 181, 182, 183, 184, 185, 186, 187, 188, 189, 190, 191, 192
193, 194, 195, 196, 197, 198, 199, 200, 201, 202, 203, 204, 205, 206, 207, 208
209, 210, 211, 212, 213, 214, 215, 216, 217, 218, 219, 220, 221, 222, 223, 224
225, 226, 227, 228, 229, 230, 231, 232, 233, 234, 235, 236, 237, 238, 239, 240
241, 242, 243, 244, 245, 246, 247, 248, 249, 250, 251, 252, 253, 254, 255, 256
257, 258, 259, 260, 261, 262, 263, 264, 265, 266, 267, 268, 269, 270, 271, 272
273, 274, 275, 276, 277, 278, 279, 280, 281, 282, 283, 284, 285, 286, 287, 288
289, 290, 291, 292, 293, 294, 295, 296, 297, 298, 299, 300, 301, 302, 303, 304
305, 306, 307, 308, 309, 310, 311, 312, 313, 314, 315, 316, 317, 318, 319, 320
** ... 50 like lines cut
*End Assembly
*Initial Conditions, type=VELOCITY
SPHERE_NODES, 3, -1.200000000000e+00
*Boundary
BEAM_FIXED, ENCASTRE
*Step, name=DROP_IMPACT, nlgeom=YES
*Dynamic, Explicit, DIRECT USER CONTROL
1.000000000000e-05, 2.000000000000e-02
*Bulk Viscosity
0., 0.
*Dload
BEAM-1.BEAM_EALL, GRAV, 9.810000000000e+00, 0., 0., -1.
SPHERE-1.SPHERE_EALL, GRAV, 9.810000000000e+00, 0., 0., -1.
*Contact
*Contact Inclusions, ALL EXTERIOR
*Contact Property Assignment
, , FRICTIONLESS_CONTACT
*Output, field, time interval=1.000000000000e-03
*Node Output
U, V
*Element Output, directions=YES
S, LE
*Output, history, time interval=1.000000000000e-03
*Energy Output
ALLKE, ALLIE, ALLSE, ALLVD, ALLWK, ETOTAL
*End Step
