** Generated by validation/run_c3d8_contact_trajectory_validation.py
*HEADING
C3D8 dynamic contact trajectory validation: curved_nonplanar_c3d8
*NODE, NSET=NALL
1, -2.500000000000e-01, -2.500000000000e-01, 0.000000000000e+00
2, 0.000000000000e+00, -2.500000000000e-01, 0.000000000000e+00
3, 2.500000000000e-01, -2.500000000000e-01, 0.000000000000e+00
4, -2.500000000000e-01, 0.000000000000e+00, 0.000000000000e+00
5, 0.000000000000e+00, 0.000000000000e+00, 0.000000000000e+00
6, 2.500000000000e-01, 0.000000000000e+00, 0.000000000000e+00
7, -2.500000000000e-01, 2.500000000000e-01, 0.000000000000e+00
8, 0.000000000000e+00, 2.500000000000e-01, 0.000000000000e+00
9, 2.500000000000e-01, 2.500000000000e-01, 0.000000000000e+00
10, -2.500000000000e-01, -2.500000000000e-01, 1.200000000000e-01
11, 0.000000000000e+00, -2.500000000000e-01, 1.200000000000e-01
12, 2.500000000000e-01, -2.500000000000e-01, 1.200000000000e-01
13, -2.500000000000e-01, 0.000000000000e+00, 1.200000000000e-01
14, 0.000000000000e+00, 0.000000000000e+00, 1.200000000000e-01
15, 2.500000000000e-01, 0.000000000000e+00, 1.200000000000e-01
16, -2.500000000000e-01, 2.500000000000e-01, 1.200000000000e-01
17, 0.000000000000e+00, 2.500000000000e-01, 1.200000000000e-01
18, 2.500000000000e-01, 2.500000000000e-01, 1.200000000000e-01
19, -2.500000000000e-01, -2.500000000000e-01, 2.435000000000e-01
20, 0.000000000000e+00, -2.500000000000e-01, 2.505000000000e-01
** ... 34 like lines cut
*ELEMENT, TYPE=C3D8, ELSET=ELALL
1, 1, 2, 5, 4, 10, 11, 14, 13
2, 2, 3, 6, 5, 11, 12, 15, 14
3, 4, 5, 8, 7, 13, 14, 17, 16
4, 5, 6, 9, 8, 14, 15, 18, 17
5, 10, 11, 14, 13, 19, 20, 23, 22
6, 11, 12, 15, 14, 20, 21, 24, 23
7, 13, 14, 17, 16, 22, 23, 26, 25
8, 14, 15, 18, 17, 23, 24, 27, 26
9, 28, 29, 32, 31, 37, 38, 41, 40
10, 29, 30, 33, 32, 38, 39, 42, 41
11, 31, 32, 35, 34, 40, 41, 44, 43
12, 32, 33, 36, 35, 41, 42, 45, 44
13, 37, 38, 41, 40, 46, 47, 50, 49
14, 38, 39, 42, 41, 47, 48, 51, 50
15, 40, 41, 44, 43, 49, 50, 53, 52
16, 41, 42, 45, 44, 50, 51, 54, 53
*NSET, NSET=NSLAVE
28, 29, 30, 31, 32, 33, 34, 35, 36, 37, 38, 39
40, 41, 42, 43, 44, 45, 46, 47, 48, 49, 50, 51
52, 53, 54
*NSET, NSET=NFIXED
1, 2, 3, 4, 5, 6, 7, 8, 9, 10, 11, 12
13, 14, 15, 16, 17, 18, 19, 20, 21, 22, 23, 24
25, 26, 27
*MATERIAL, NAME=MAT
*ELASTIC
1.000000000000e+05, 3.000000000000e-01
*DENSITY
1.000000000000e+00
*SOLID SECTION, ELSET=ELALL, MATERIAL=MAT
*SURFACE, NAME=SSLAVE, TYPE=ELEMENT
9, S1
10, S1
11, S1
12, S1
*SURFACE, NAME=SMASTER, TYPE=ELEMENT
5, S2
6, S2
7, S2
8, S2
*SURFACE INTERACTION, NAME=CONTACT
*SURFACE BEHAVIOR, PRESSURE-OVERCLOSURE=LINEAR
5.000000000000e+04
*CONTACT PAIR, INTERACTION=CONTACT, TYPE=SURFACE TO SURFACE
SSLAVE, SMASTER
*INITIAL CONDITIONS, TYPE=VELOCITY
NSLAVE, 3, -3.000000000000e-01
*BOUNDARY
NFIXED, 1, 3, 0.0
*STEP, NLGEOM
*DYNAMIC
2.000000000000e-03, 4.000000000000e-02, 2.000000000000e-05, 2.000000000000e-03
*DLOAD
ELALL, GRAV, 9.810000000000e+00, 0.0, 0.0, -1.0
*NODE PRINT, NSET=NALL, FREQUENCY=1
U
*NODE PRINT, NSET=NALL, FREQUENCY=1
V
*NODE PRINT, NSET=NFIXED, TOTALS=ONLY, GLOBAL=YES, FREQUENCY=1
RF
*CONTACT PRINT, FREQUENCY=1
CDIS,CSTR,CELS
*CONTACT PRINT, TOTALS=ONLY, FREQUENCY=1
CELS,CNUM
*EL PRINT, ELSET=ELALL, FREQUENCY=1
S,E
*END STEP
