*Heading
Abaqus Explicit fixed-dt linear-penalty sphere free fall onto rigid plane
*Preprint, echo=NO, model=NO, history=NO, contact=NO
*Material, name=BODY_MAT
*Density
1.200000000000e+03
*Elastic
5.000000000000e+07, 3.000000000000e-01
*Surface Interaction, name=FRICTIONLESS_LINEAR_PENALTY
*Surface Behavior, pressure-overclosure=LINEAR
5.000000000000e+09
*Contact Damping, definition=CRITICAL DAMPING FRACTION
0.000000000000e+00
*Friction
0.
*Part, name=FLEX_SPHERE
*Node
1, 0.000000000000e+00, 0.000000000000e+00, 7.000000000000e-02
2, 0.000000000000e+00, 0.000000000000e+00, 1.200000000000e-01
3, 1.294095225513e-02, 0.000000000000e+00, 1.182962913145e-01
4, 1.250000000000e-02, 3.349364905389e-03, 1.182962913145e-01
5, 1.120719340210e-02, 6.470476127563e-03, 1.182962913145e-01
6, 9.150635094611e-03, 9.150635094611e-03, 1.182962913145e-01
7, 6.470476127563e-03, 1.120719340210e-02, 1.182962913145e-01
8, 3.349364905389e-03, 1.250000000000e-02, 1.182962913145e-01
9, 7.924047878579e-19, 1.294095225513e-02, 1.182962913145e-01
10, -3.349364905389e-03, 1.250000000000e-02, 1.182962913145e-01
11, -6.470476127563e-03, 1.120719340210e-02, 1.182962913145e-01
12, -9.150635094611e-03, 9.150635094611e-03, 1.182962913145e-01
13, -1.120719340210e-02, 6.470476127563e-03, 1.182962913145e-01
14, -1.250000000000e-02, 3.349364905389e-03, 1.182962913145e-01
15, -1.294095225513e-02, 1.584809575716e-18, 1.182962913145e-01
16, -1.250000000000e-02, -3.349364905389e-03, 1.182962913145e-01
17, -1.120719340210e-02, -6.470476127563e-03, 1.182962913145e-01
18, -9.150635094611e-03, -9.150635094611e-03, 1.182962913145e-01
19, -6.470476127563e-03, -1.120719340210e-02, 1.182962913145e-01
20, -3.349364905389e-03, -1.250000000000e-02, 1.182962913145e-01
** ... 247 like lines cut
*Element, type=C3D4, elset=SPHERE_EALL
1, 1, 2, 3, 4
2, 1, 2, 4, 5
3, 1, 2, 5, 6
4, 1, 2, 6, 7
5, 1, 2, 7, 8
6, 1, 2, 8, 9
7, 1, 2, 9, 10
8, 1, 2, 10, 11
9, 1, 2, 11, 12
10, 1, 2, 12, 13
11, 1, 2, 13, 14
12, 1, 2, 14, 15
13, 1, 2, 15, 16
14, 1, 2, 16, 17
15, 1, 2, 17, 18
16, 1, 2, 18, 19
17, 1, 2, 19, 20
18, 1, 2, 20, 21
19, 1, 2, 21, 22
20, 1, 2, 22, 23
** ... 508 like lines cut
*Elset, elset=SPHERE_EALL, generate
1, 528, 1
*Solid Section, elset=SPHERE_EALL, material=BODY_MAT
,
*End Part
*Part, name=RIGID_PLANE
*Node
1, -3.000000000000e-01, -3.000000000000e-01, 0.000000000000e+00
2, 3.000000000000e-01, -3.000000000000e-01, 0.000000000000e+00
3, 3.000000000000e-01, 3.000000000000e-01, 0.000000000000e+00
4, -3.000000000000e-01, 3.000000000000e-01, 0.000000000000e+00
5, 0.000000000000e+00, 0.000000000000e+00, 0.000000000000e+00
*Element, type=R3D4, elset=PLANE_EALL
1, 1, 2, 3, 4
*Nset, nset=PLANE_RP
5
*Rigid Body, ref node=PLANE_RP, elset=PLANE_EALL
*End Part
*Assembly, name=ASSEMBLY
*Instance, name=SPHERE-1, part=FLEX_SPHERE
*End Instance
*Instance, name=PLANE-1, part=RIGID_PLANE
*End Instance
*Nset, nset=BODY_NODES, instance=SPHERE-1
1, 2, 3, 4, 5, 6, 7, 8, 9, 10, 11, 12, 13, 14, 15, 16
17, 18, 19, 20, 21, 22, 23, 24, 25, 26, 27, 28, 29, 30, 31, 32
33, 34, 35, 36, 37, 38, 39, 40, 41, 42, 43, 44, 45, 46, 47, 48
49, 50, 51, 52, 53, 54, 55, 56, 57, 58, 59, 60, 61, 62, 63, 64
65, 66, 67, 68, 69, 70, 71, 72, 73, 74, 75, 76, 77, 78, 79, 80
81, 82, 83, 84, 85, 86, 87, 88, 89, 90, 91, 92, 93, 94, 95, 96
97, 98, 99, 100, 101, 102, 103, 104, 105, 106, 107, 108, 109, 110, 111, 112
113, 114, 115, 116, 117, 118, 119, 120, 121, 122, 123, 124, 125, 126, 127, 128
129, 130, 131, 132, 133, 134, 135, 136, 137, 138, 139, 140, 141, 142, 143, 144
145, 146, 147, 148, 149, 150, 151, 152, 153, 154, 155, 156, 157, 158, 159, 160
161, 162, 163, 164, 165, 166, 167, 168, 169, 170, 171, 172, 173, 174, 175, 176
177, 178, 179, 180, 181, 182, 183, 184, 185, 186, 187, 188, 189, 190, 191, 192
193, 194, 195, 196, 197, 198, 199, 200, 201, 202, 203, 204, 205, 206, 207, 208
209, 210, 211, 212, 213, 214, 215, 216, 217, 218, 219, 220, 221, 222, 223, 224
225, 226, 227, 228, 229, 230, 231, 232, 233, 234, 235, 236, 237, 238, 239, 240
241, 242, 243, 244, 245, 246, 247, 248, 249, 250, 251, 252, 253, 254, 255, 256
257, 258, 259, 260, 261, 262, 263, 264, 265, 266, 267
*End Assembly
*Boundary
PLANE-1.PLANE_RP, ENCASTRE
*Step, name=EXPLICIT_LINEAR_FIXED_DT, nlgeom=YES
*Dynamic, Explicit, DIRECT USER CONTROL
5.000000000000e-06, 1.000000000000e+00
*Bulk Viscosity
0., 0.
*Dload
SPHERE-1.SPHERE_EALL, GRAV, 9.810000000000e+00, 0., 0., -1.
*Contact
*Contact Inclusions, ALL EXTERIOR
*Contact Property Assignment
, , FRICTIONLESS_LINEAR_PENALTY
*Output, field, time interval=1.000000000000e-03
*Node Output
U, V
*Element Output, elset=SPHERE-1.SPHERE_EALL, directions=YES
S, LE
*Output, history, time interval=1.000000000000e-03
*Energy Output
ALLKE, ALLIE, ALLSE, ALLVD, ALLWK, ETOTAL
*End Step
